#P hf

Gaussian input prepared by ASE

0 1
C                 5.8130857031        3.0026402953        4.3994881176
C                 7.5186785917        3.2828204474        7.7036428799
C                 6.7414425730        3.5839486231        3.5401658167
C                 6.5903217218        2.7015121196        8.5629651807
C                 6.5126278615        3.7045534146        2.1398335603
C                 6.8191364333        2.5809073281        9.9632974371
C                 7.4480660262        4.2611271072        1.3107690870
C                 5.8836982686        2.0243336355       10.7923619104
C                 8.6744103688        4.7544006777        1.8541996688
C                 4.6573539260        1.5310600650       10.2489313286
C                 8.9284124305        4.6751769195        3.1746512606
C                 4.4033518642        1.6102838232        8.9284797368
C                 7.9949323007        4.0860794594        4.0811757723
C                 5.3368319941        2.1993812833        8.0219552251
C                 8.2156769737        3.9727497122        5.4464089488
C                 5.1160873210        2.3127110305        6.6567220486
C                 6.0410181094        2.8953066814        5.7707728596
C                 7.2907461854        3.3901540613        6.3323581379
H                 4.9912725788        2.6715446063        4.0569695103
H                 8.3404917160        3.6139161364        8.0461614871
H                 5.6930292608        3.3916821395        1.7731086911
H                 7.6387350340        2.8937786032       10.3300223063
H                 7.2835137602        4.3189489160        0.3764073740
H                 6.0482505346        1.9665118267       11.7267236234
H                 9.3198825673        5.1433265874        1.2768803202
H                 4.0118817275        1.1421341552       10.8262506772
H                 9.7471043350        5.0195564043        3.5099079893
H                 3.5846599598        1.2659043384        8.5932230082
H                 9.0318857760        4.3046333574        5.7998203740
H                 4.2998785188        1.9808273853        6.3033106235
C                 3.0006442516        8.0582937742        4.7795264309
C                 4.8497231280        6.0436386918        7.3236045665
C                 3.8853494477        8.0709634848        3.7120302769
C                 3.9650179319        6.0309689812        8.3911007205
C                 3.5915971267        8.7237033871        2.4738799759
C                 4.2587702529        5.3782290789        9.6292510215
C                 4.4716750245        8.7056507413        1.4451138411
C                 3.3786923551        5.3962817247       10.6580171563
C                 5.7241332946        8.0215260276        1.5782482821
C                 2.1262340850        6.0804064384       10.5248827154
C                 6.0446841798        7.3953074504        2.7219941613
C                 1.8056831997        6.7066250157        9.3811368361
C                 5.1560236597        7.3834488293        3.8403234655
C                 2.6943437198        6.7184836367        8.2628075319
C                 5.4555513326        6.7351081176        5.0264303032
C                 2.3948160469        7.3668243485        7.0767006942
C                 3.2860872593        7.3940714871        5.9862085913
C                 4.5642801202        6.7078609789        6.1169224061
H                 2.1653691253        8.5050947491        4.7093282711
H                 5.6849982542        5.5968377169        7.3938027263
H                 2.7635290403        9.1775202593        2.3710033624
H                 5.0868383393        4.9244122068        9.7321276350
H                 4.2583384083        9.1475919618        0.6317834381
H                 3.5920289712        4.9543405043       11.4713475594
H                 6.3339380830        8.0119848022        0.8496397960
H                 1.5164292966        6.0899476638       11.2534912014
H                 6.8816979381        6.9495472697        2.7897716949
H                 0.9686694414        7.1523851964        9.3133593025
H                 6.2925713326        6.2932645849        5.1087315940
H                 1.5577960469        7.8086678812        6.9943994034


