#P hf

Gaussian input prepared by ASE

0 1
C                20.8249649300        1.7925000000       10.6582500000
C                19.3585350700        1.7925000000       10.6582500000
C                21.5153174600        0.7554312000       11.3565785400
C                18.6681825400        2.8295688000        9.9599214600
C                21.5153174600        2.8295688000        9.9599214600
C                18.6681825400        0.7554312000       11.3565785400
C                20.8091594200       -0.3282426000       11.9024230500
C                19.3743405800        3.9132426000        9.4140769500
C                20.8091594200        3.9132426000        9.4140769500
C                19.3743405800       -0.3282426000       11.9024230500
C                21.4823669900       -1.4163618000       12.5642293200
C                18.7011330100        5.0013618000        8.7522706800
C                21.4823669900        5.0013618000        8.7522706800
C                18.7011330100       -1.4163618000       12.5642293200
C                20.8005869400       -2.4330678000       13.1500067400
C                19.3829130600        6.0180678000        8.1664932600
C                20.8005869400        6.0180678000        8.1664932600
C                19.3829130600       -2.4330678000       13.1500067400
C                22.9742464000        0.8282784000       11.6919581400
C                17.2092536000        2.7567216000        9.6245418600
C                22.9742464000        2.7567216000        9.6245418600
C                17.2092536000        0.8282784000       11.6919581400
C                23.9204338800        0.0131211000       11.0676689100
C                16.2630661200        3.5718789000       10.2488310900
C                23.9204338800        3.5718789000       10.2488310900
C                16.2630661200        0.0131211000       11.0676689100
C                25.2349701100       -0.0064530000       11.5079256900
C                14.9485298900        3.5914530000        9.8085743100
C                25.2349701100        3.5914530000        9.8085743100
C                14.9485298900       -0.0064530000       11.5079256900
C                25.6330546500        0.7965870000       12.5693452800
C                14.5504453500        2.7884130000        8.7471547200
C                25.6330546500        2.7884130000        8.7471547200
C                14.5504453500        0.7965870000       12.5693452800
C                24.7045479100        1.6125330000       13.1959082700
C                15.4789520900        1.9724670000        8.1205917300
C                24.7045479100        1.9724670000        8.1205917300
C                15.4789520900        1.6125330000       13.1959082700
C                23.3873327800        1.6231446000       12.7637517600
C                16.7961672200        1.9618554000        8.5527482400
C                23.3873327800        1.9618554000        8.5527482400
C                16.7961672200        1.6231446000       12.7637517600
H                22.4572187000       -1.4124900000       12.5866827000
H                17.7262813000        4.9974900000        8.7298173000
H                22.4572187000        4.9974900000        8.7298173000
H                17.7262813000       -1.4124900000       12.5866827000
H                21.2651082000       -3.1476300000       13.5928215000
H                18.9183918000        6.7326300000        7.7236785000
H                21.2651082000        6.7326300000        7.7236785000
H                18.9183918000       -3.1476300000       13.5928215000
H                23.6493292000       -0.5520900000       10.2944484000
H                16.5341708000        4.1370900000       11.0220516000
H                23.6493292000        4.1370900000       11.0220516000
H                16.5341708000       -0.5520900000       10.2944484000
H                25.8969263000       -0.5879400000       11.0547369000
H                14.2865737000        4.1729400000       10.2617631000
H                25.8969263000        4.1729400000       10.2617631000
H                14.2865737000       -0.5879400000       11.0547369000
H                26.5559357000        0.7887000000       12.8552706000
H                13.6275643000        2.7963000000        8.4612294000
H                26.5559357000        2.7963000000        8.4612294000
H                13.6275643000        0.7887000000       12.8552706000
H                24.9807425000        2.1796800000       13.9424121000
H                15.2027575000        1.4053200000        7.3740879000
H                24.9807425000        1.4053200000        7.3740879000
H                15.2027575000        2.1796800000       13.9424121000
H                22.7117142000        2.1796800000       13.2219144000
H                17.4717858000        1.4053200000        8.0945856000
H                22.7117142000        1.4053200000        8.0945856000
H                17.4717858000        2.1796800000       13.2219144000
C                20.8249649300        1.7925000000       10.6582500000
C                19.3585350700        1.7925000000       10.6582500000
C                21.5153174600        0.7554312000       11.3565785400
C                18.6681825400        2.8295688000        9.9599214600
C                21.5153174600        2.8295688000        9.9599214600
C                18.6681825400        0.7554312000       11.3565785400
C                20.8091594200       -0.3282426000       11.9024230500
C                19.3743405800        3.9132426000        9.4140769500
C                20.8091594200        3.9132426000        9.4140769500
C                19.3743405800       -0.3282426000       11.9024230500
C                21.4823669900       -1.4163618000       12.5642293200
C                18.7011330100        5.0013618000        8.7522706800
C                21.4823669900        5.0013618000        8.7522706800
C                18.7011330100       -1.4163618000       12.5642293200
C                20.8005869400       -2.4330678000       13.1500067400
C                19.3829130600        6.0180678000        8.1664932600
C                20.8005869400        6.0180678000        8.1664932600
C                19.3829130600       -2.4330678000       13.1500067400
C                22.9742464000        0.8282784000       11.6919581400
C                17.2092536000        2.7567216000        9.6245418600
C                22.9742464000        2.7567216000        9.6245418600
C                17.2092536000        0.8282784000       11.6919581400
C                23.9204338800        0.0131211000       11.0676689100
C                16.2630661200        3.5718789000       10.2488310900
C                23.9204338800        3.5718789000       10.2488310900
C                16.2630661200        0.0131211000       11.0676689100
C                25.2349701100       -0.0064530000       11.5079256900
C                14.9485298900        3.5914530000        9.8085743100
C                25.2349701100        3.5914530000        9.8085743100
C                14.9485298900       -0.0064530000       11.5079256900
C                25.6330546500        0.7965870000       12.5693452800
C                14.5504453500        2.7884130000        8.7471547200
C                25.6330546500        2.7884130000        8.7471547200
C                14.5504453500        0.7965870000       12.5693452800
C                24.7045479100        1.6125330000       13.1959082700
C                15.4789520900        1.9724670000        8.1205917300
C                24.7045479100        1.9724670000        8.1205917300
C                15.4789520900        1.6125330000       13.1959082700
C                23.3873327800        1.6231446000       12.7637517600
C                16.7961672200        1.9618554000        8.5527482400
C                23.3873327800        1.9618554000        8.5527482400
C                16.7961672200        1.6231446000       12.7637517600
H                22.4572187000       -1.4124900000       12.5866827000
H                17.7262813000        4.9974900000        8.7298173000
H                22.4572187000        4.9974900000        8.7298173000
H                17.7262813000       -1.4124900000       12.5866827000
H                21.2651082000       -3.1476300000       13.5928215000
H                18.9183918000        6.7326300000        7.7236785000
H                21.2651082000        6.7326300000        7.7236785000
H                18.9183918000       -3.1476300000       13.5928215000
H                23.6493292000       -0.5520900000       10.2944484000
H                16.5341708000        4.1370900000       11.0220516000
H                23.6493292000        4.1370900000       11.0220516000
H                16.5341708000       -0.5520900000       10.2944484000
H                25.8969263000       -0.5879400000       11.0547369000
H                14.2865737000        4.1729400000       10.2617631000
H                25.8969263000        4.1729400000       10.2617631000
H                14.2865737000       -0.5879400000       11.0547369000
H                26.5559357000        0.7887000000       12.8552706000
H                13.6275643000        2.7963000000        8.4612294000
H                26.5559357000        2.7963000000        8.4612294000
H                13.6275643000        0.7887000000       12.8552706000
H                24.9807425000        2.1796800000       13.9424121000
H                15.2027575000        1.4053200000        7.3740879000
H                24.9807425000        1.4053200000        7.3740879000
H                15.2027575000        2.1796800000       13.9424121000
H                22.7117142000        2.1796800000       13.2219144000
H                17.4717858000        1.4053200000        8.0945856000
H                22.7117142000        1.4053200000        8.0945856000
H                17.4717858000        2.1796800000       13.2219144000
C                19.3585350700        5.3775000000        3.5527500000
C                20.8249649300        5.3775000000        3.5527500000
C                18.6681825400        6.4145688000        4.2510785400
C                21.5153174600        4.3404312000        2.8544214600
C                18.6681825400        4.3404312000        2.8544214600
C                21.5153174600        6.4145688000        4.2510785400
C                19.3743405800        7.4982426000        4.7969230500
C                20.8091594200        3.2567574000        2.3085769500
C                19.3743405800        3.2567574000        2.3085769500
C                20.8091594200        7.4982426000        4.7969230500
C                18.7011330100        8.5863618000        5.4587293200
C                21.4823669900        2.1686382000        1.6467706800
C                18.7011330100        2.1686382000        1.6467706800
C                21.4823669900        8.5863618000        5.4587293200
C                19.3829130600        9.6030678000        6.0445067400
C                20.8005869400        1.1519322000        1.0609932600
C                19.3829130600        1.1519322000        1.0609932600
C                20.8005869400        9.6030678000        6.0445067400
C                17.2092536000        6.3417216000        4.5864581400
C                22.9742464000        4.4132784000        2.5190418600
C                17.2092536000        4.4132784000        2.5190418600
C                22.9742464000        6.3417216000        4.5864581400
C                16.2630661200        7.1568789000        3.9621689100
C                23.9204338800        3.5981211000        3.1433310900
C                16.2630661200        3.5981211000        3.1433310900
C                23.9204338800        7.1568789000        3.9621689100
C                14.9485298900        7.1764530000        4.4024256900
C                25.2349701100        3.5785470000        2.7030743100
C                14.9485298900        3.5785470000        2.7030743100
C                25.2349701100        7.1764530000        4.4024256900
C                14.5504453500        6.3734130000        5.4638452800
C                25.6330546500        4.3815870000        1.6416547200
C                14.5504453500        4.3815870000        1.6416547200
C                25.6330546500        6.3734130000        5.4638452800
C                15.4789520900        5.5574670000        6.0904082700
C                24.7045479100        5.1975330000        1.0150917300
C                15.4789520900        5.1975330000        1.0150917300
C                24.7045479100        5.5574670000        6.0904082700
C                16.7961672200        5.5468554000        5.6582517600
C                23.3873327800        5.2081446000        1.4472482400
C                16.7961672200        5.2081446000        1.4472482400
C                23.3873327800        5.5468554000        5.6582517600
H                17.7262813000        8.5824900000        5.4811827000
H                22.4572187000        2.1725100000        1.6243173000
H                17.7262813000        2.1725100000        1.6243173000
H                22.4572187000        8.5824900000        5.4811827000
H                18.9183918000       10.3176300000        6.4873215000
H                21.2651082000        0.4373700000        0.6181785000
H                18.9183918000        0.4373700000        0.6181785000
H                21.2651082000       10.3176300000        6.4873215000
H                16.5341708000        7.7220900000        3.1889484000
H                23.6493292000        3.0329100000        3.9165516000
H                16.5341708000        3.0329100000        3.9165516000
H                23.6493292000        7.7220900000        3.1889484000
H                14.2865737000        7.7579400000        3.9492369000
H                25.8969263000        2.9970600000        3.1562631000
H                14.2865737000        2.9970600000        3.1562631000
H                25.8969263000        7.7579400000        3.9492369000
H                13.6275643000        6.3813000000        5.7497706000
H                26.5559357000        4.3737000000        1.3557294000
H                13.6275643000        4.3737000000        1.3557294000
H                26.5559357000        6.3813000000        5.7497706000
H                15.2027575000        4.9903200000        6.8369121000
H                24.9807425000        5.7646800000        0.2685879000
H                15.2027575000        5.7646800000        0.2685879000
H                24.9807425000        4.9903200000        6.8369121000
H                17.4717858000        4.9903200000        6.1164144000
H                22.7117142000        5.7646800000        0.9890856000
H                17.4717858000        5.7646800000        0.9890856000
H                22.7117142000        4.9903200000        6.1164144000
C                19.3585350700        5.3775000000        3.5527500000
C                20.8249649300        5.3775000000        3.5527500000
C                18.6681825400        6.4145688000        4.2510785400
C                21.5153174600        4.3404312000        2.8544214600
C                18.6681825400        4.3404312000        2.8544214600
C                21.5153174600        6.4145688000        4.2510785400
C                19.3743405800        7.4982426000        4.7969230500
C                20.8091594200        3.2567574000        2.3085769500
C                19.3743405800        3.2567574000        2.3085769500
C                20.8091594200        7.4982426000        4.7969230500
C                18.7011330100        8.5863618000        5.4587293200
C                21.4823669900        2.1686382000        1.6467706800
C                18.7011330100        2.1686382000        1.6467706800
C                21.4823669900        8.5863618000        5.4587293200
C                19.3829130600        9.6030678000        6.0445067400
C                20.8005869400        1.1519322000        1.0609932600
C                19.3829130600        1.1519322000        1.0609932600
C                20.8005869400        9.6030678000        6.0445067400
C                17.2092536000        6.3417216000        4.5864581400
C                22.9742464000        4.4132784000        2.5190418600
C                17.2092536000        4.4132784000        2.5190418600
C                22.9742464000        6.3417216000        4.5864581400
C                16.2630661200        7.1568789000        3.9621689100
C                23.9204338800        3.5981211000        3.1433310900
C                16.2630661200        3.5981211000        3.1433310900
C                23.9204338800        7.1568789000        3.9621689100
C                14.9485298900        7.1764530000        4.4024256900
C                25.2349701100        3.5785470000        2.7030743100
C                14.9485298900        3.5785470000        2.7030743100
C                25.2349701100        7.1764530000        4.4024256900
C                14.5504453500        6.3734130000        5.4638452800
C                25.6330546500        4.3815870000        1.6416547200
C                14.5504453500        4.3815870000        1.6416547200
C                25.6330546500        6.3734130000        5.4638452800
C                15.4789520900        5.5574670000        6.0904082700
C                24.7045479100        5.1975330000        1.0150917300
C                15.4789520900        5.1975330000        1.0150917300
C                24.7045479100        5.5574670000        6.0904082700
C                16.7961672200        5.5468554000        5.6582517600
C                23.3873327800        5.2081446000        1.4472482400
C                16.7961672200        5.2081446000        1.4472482400
C                23.3873327800        5.5468554000        5.6582517600
H                17.7262813000        8.5824900000        5.4811827000
H                22.4572187000        2.1725100000        1.6243173000
H                17.7262813000        2.1725100000        1.6243173000
H                22.4572187000        8.5824900000        5.4811827000
H                18.9183918000       10.3176300000        6.4873215000
H                21.2651082000        0.4373700000        0.6181785000
H                18.9183918000        0.4373700000        0.6181785000
H                21.2651082000       10.3176300000        6.4873215000
H                16.5341708000        7.7220900000        3.1889484000
H                23.6493292000        3.0329100000        3.9165516000
H                16.5341708000        3.0329100000        3.9165516000
H                23.6493292000        7.7220900000        3.1889484000
H                14.2865737000        7.7579400000        3.9492369000
H                25.8969263000        2.9970600000        3.1562631000
H                14.2865737000        2.9970600000        3.1562631000
H                25.8969263000        7.7579400000        3.9492369000
H                13.6275643000        6.3813000000        5.7497706000
H                26.5559357000        4.3737000000        1.3557294000
H                13.6275643000        4.3737000000        1.3557294000
H                26.5559357000        6.3813000000        5.7497706000
H                15.2027575000        4.9903200000        6.8369121000
H                24.9807425000        5.7646800000        0.2685879000
H                15.2027575000        5.7646800000        0.2685879000
H                24.9807425000        4.9903200000        6.8369121000
H                17.4717858000        4.9903200000        6.1164144000
H                22.7117142000        5.7646800000        0.9890856000
H                17.4717858000        5.7646800000        0.9890856000
H                22.7117142000        4.9903200000        6.1164144000


