#P hf

Gaussian input prepared by ASE

0 1
C                 6.1581248000        7.9237170000       14.8659719000
C                 6.1581248000        7.9237170000       12.0310281000
C                 5.0819616000        8.4793875000       14.1693396000
C                 5.0819616000        8.4793875000       12.7276604000
C                 4.0014880000        9.1447488000       14.8336955000
C                 4.0014880000        9.1447488000       12.0633045000
C                 2.9950096000        9.7350585000       14.1558911000
C                 2.9950096000        9.7350585000       12.7411089000
C                 6.2349936000        8.2643358000       16.3318584000
C                 6.2349936000        8.2643358000       10.5651416000
C                 7.0245152000        9.3294912000       16.7272443000
C                 7.0245152000        9.3294912000       10.1697557000
C                 7.0237968000        9.7624812000       18.0505767000
C                 7.0237968000        9.7624812000        8.8464233000
C                 6.2141600000        9.1433055000       18.9731438000
C                 6.2141600000        9.1433055000        7.9238562000
C                 5.4232016000        8.0969130000       18.5858270000
C                 5.4232016000        8.0969130000        8.3111730000
C                 5.4289488000        7.6509333000       17.2759431000
C                 5.4289488000        7.6509333000        9.6210569000
H                 4.0445920000        9.2082540000       15.8154360000
H                 4.0445920000        9.2082540000       11.0815640000
H                 2.2557760000       10.2041310000       14.6588650000
H                 2.2557760000       10.2041310000       12.2381350000
H                 6.7673280000        4.6474260000       16.0575090000
H                 6.7673280000        4.6474260000       10.8394910000
H                 6.7529600000        3.8680440000       18.2899600000
H                 6.7529600000        3.8680440000        8.6070400000
H                 6.1997920000        9.4680480000       19.9306770000
H                 6.1997920000        9.4680480000        6.9663230000
H                 4.8060960000        7.6350570000       19.2313550000
H                 4.8060960000        7.6350570000        7.6656450000
H                 4.8635680000        6.8412420000       16.9989040000
H                 4.8635680000        6.8412420000        9.8980960000
C                 7.1840000000        7.2165000000       14.1827881000
C                 7.1840000000        7.2165000000       12.7142119000
C                13.3421248000        7.9237170000       14.8659719000
C                 8.2098752000        6.5092830000       14.8659719000
C                 8.2098752000        6.5092830000       12.0310281000
C                13.3421248000        7.9237170000       12.0310281000
C                12.2659616000        8.4793875000       14.1693396000
C                 9.2860384000        5.9536125000       14.1693396000
C                 9.2860384000        5.9536125000       12.7276604000
C                12.2659616000        8.4793875000       12.7276604000
C                11.1854880000        9.1447488000       14.8336955000
C                10.3665120000        5.2882512000       14.8336955000
C                10.3665120000        5.2882512000       12.0633045000
C                11.1854880000        9.1447488000       12.0633045000
C                10.1790096000        9.7350585000       14.1558911000
C                11.3729904000        4.6979415000       14.1558911000
C                11.3729904000        4.6979415000       12.7411089000
C                10.1790096000        9.7350585000       12.7411089000
C                13.4189936000        8.2643358000       16.3318584000
C                 8.1330064000        6.1686642000       16.3318584000
C                 8.1330064000        6.1686642000       10.5651416000
C                13.4189936000        8.2643358000       10.5651416000
C                14.2085152000        9.3294912000       16.7272443000
C                 7.3434848000        5.1035088000       16.7272443000
C                 7.3434848000        5.1035088000       10.1697557000
C                14.2085152000        9.3294912000       10.1697557000
C                14.2077968000        9.7624812000       18.0505767000
C                 7.3442032000        4.6705188000       18.0505767000
C                 7.3442032000        4.6705188000        8.8464233000
C                14.2077968000        9.7624812000        8.8464233000
C                13.3981600000        9.1433055000       18.9731438000
C                 8.1538400000        5.2896945000       18.9731438000
C                 8.1538400000        5.2896945000        7.9238562000
C                13.3981600000        9.1433055000        7.9238562000
C                12.6072016000        8.0969130000       18.5858270000
C                 8.9447984000        6.3360870000       18.5858270000
C                 8.9447984000        6.3360870000        8.3111730000
C                12.6072016000        8.0969130000        8.3111730000
C                12.6129488000        7.6509333000       17.2759431000
C                 8.9390512000        6.7820667000       17.2759431000
C                 8.9390512000        6.7820667000        9.6210569000
C                12.6129488000        7.6509333000        9.6210569000
H                11.2285920000        9.2082540000       15.8154360000
H                10.3234080000        5.2247460000       15.8154360000
H                10.3234080000        5.2247460000       11.0815640000
H                11.2285920000        9.2082540000       11.0815640000
H                 9.4397760000       10.2041310000       14.6588650000
H                12.1122240000        4.2288690000       14.6588650000
H                12.1122240000        4.2288690000       12.2381350000
H                 9.4397760000       10.2041310000       12.2381350000
H                 7.6006720000        9.7855740000       16.0575090000
H                13.9513280000        4.6474260000       16.0575090000
H                13.9513280000        4.6474260000       10.8394910000
H                 7.6006720000        9.7855740000       10.8394910000
H                 7.6150400000       10.5649560000       18.2899600000
H                13.9369600000        3.8680440000       18.2899600000
H                13.9369600000        3.8680440000        8.6070400000
H                 7.6150400000       10.5649560000        8.6070400000
H                13.3837920000        9.4680480000       19.9306770000
H                 8.1682080000        4.9649520000       19.9306770000
H                 8.1682080000        4.9649520000        6.9663230000
H                13.3837920000        9.4680480000        6.9663230000
H                11.9900960000        7.6350570000       19.2313550000
H                 9.5619040000        6.7979430000       19.2313550000
H                 9.5619040000        6.7979430000        7.6656450000
H                11.9900960000        7.6350570000        7.6656450000
H                12.0475680000        6.8412420000       16.9989040000
H                 9.5044320000        7.5917580000       16.9989040000
H                 9.5044320000        7.5917580000        9.8980960000
H                12.0475680000        6.8412420000        9.8980960000
C                14.3680000000        7.2165000000       14.1827881000
C                14.3680000000        7.2165000000       12.7142119000
C                15.3938752000        6.5092830000       14.8659719000
C                15.3938752000        6.5092830000       12.0310281000
C                16.4700384000        5.9536125000       14.1693396000
C                16.4700384000        5.9536125000       12.7276604000
C                17.5505120000        5.2882512000       14.8336955000
C                17.5505120000        5.2882512000       12.0633045000
C                18.5569904000        4.6979415000       14.1558911000
C                18.5569904000        4.6979415000       12.7411089000
C                15.3170064000        6.1686642000       16.3318584000
C                15.3170064000        6.1686642000       10.5651416000
C                14.5274848000        5.1035088000       16.7272443000
C                14.5274848000        5.1035088000       10.1697557000
C                14.5282032000        4.6705188000       18.0505767000
C                14.5282032000        4.6705188000        8.8464233000
C                15.3378400000        5.2896945000       18.9731438000
C                15.3378400000        5.2896945000        7.9238562000
C                16.1287984000        6.3360870000       18.5858270000
C                16.1287984000        6.3360870000        8.3111730000
C                16.1230512000        6.7820667000       17.2759431000
C                16.1230512000        6.7820667000        9.6210569000
H                17.5074080000        5.2247460000       15.8154360000
H                17.5074080000        5.2247460000       11.0815640000
H                19.2962240000        4.2288690000       14.6588650000
H                19.2962240000        4.2288690000       12.2381350000
H                14.7846720000        9.7855740000       16.0575090000
H                14.7846720000        9.7855740000       10.8394910000
H                14.7990400000       10.5649560000       18.2899600000
H                14.7990400000       10.5649560000        8.6070400000
H                15.3522080000        4.9649520000       19.9306770000
H                15.3522080000        4.9649520000        6.9663230000
H                16.7459040000        6.7979430000       19.2313550000
H                16.7459040000        6.7979430000        7.6656450000
H                16.6884320000        7.5917580000       16.9989040000
H                16.6884320000        7.5917580000        9.8980960000
TV        21.5520000000        0.0000000000        0.0000000000
TV         0.0000000000       14.4330000000        0.0000000000
TV         0.0000000000        0.0000000000       26.8970000000


