%mem=48GB
%nprocshared=24
#P b3lyp/6-31G*
scf=tight
nosymm punch=mo iop(3/33=1)

Gaussian input prepared by ASE

0 1
C                 6.5870096000       15.5226915000       41.0528911000
C                 6.5870096000       15.5226915000       39.6381089000
H                 5.8477760000       15.0536190000       41.5558650000
H                 5.8477760000       15.0536190000       39.1351350000
C                 6.1581248000       25.9649670000       41.7629719000
C                 6.1581248000       25.9649670000       38.9280281000
C                 5.0819616000       26.5206375000       41.0663396000
C                 5.0819616000       26.5206375000       39.6246604000
C                 4.0014880000       27.1859988000       41.7306955000
C                 4.0014880000       27.1859988000       38.9603045000
C                 2.9950096000       27.7763085000       41.0528911000
C                 2.9950096000       27.7763085000       39.6381089000
C                 6.2349936000       26.3055858000       43.2288584000
C                 6.2349936000       26.3055858000       37.4621416000
C                 7.0245152000       27.3707412000       43.6242443000
C                 7.0245152000       27.3707412000       37.0667557000
C                 7.0237968000       27.8037312000       44.9475767000
C                 7.0237968000       27.8037312000       35.7434233000
C                 6.2141600000       27.1845555000       45.8701438000
C                 6.2141600000       27.1845555000       34.8208562000
C                 5.4232016000       26.1381630000       45.4828270000
C                 5.4232016000       26.1381630000       35.2081730000
C                 5.4289488000       25.6921833000       44.1729431000
C                 5.4289488000       25.6921833000       36.5180569000
H                 4.0445920000       27.2495040000       42.7124360000
H                 4.0445920000       27.2495040000       37.9785640000
H                 2.2557760000       28.2453810000       41.5558650000
H                 2.2557760000       28.2453810000       39.1351350000
H                 6.7673280000       22.6886760000       42.9545090000
H                 6.7673280000       22.6886760000       37.7364910000
H                 6.7529600000       21.9092940000       45.1869600000
H                 6.7529600000       21.9092940000       35.5040400000
H                 6.1997920000       27.5092980000       46.8276770000
H                 6.1997920000       27.5092980000       33.8633230000
H                 4.8060960000       25.6763070000       46.1283550000
H                 4.8060960000       25.6763070000       34.5626450000
H                 4.8635680000       24.8824920000       43.8959040000
H                 4.8635680000       24.8824920000       36.7950960000
C                 9.7501248000       17.3340330000       41.7629719000
C                 9.7501248000       17.3340330000       38.9280281000
C                 8.6739616000       16.7783625000       41.0663396000
C                 8.6739616000       16.7783625000       39.6246604000
C                 7.5934880000       16.1130012000       41.7306955000
C                 7.5934880000       16.1130012000       38.9603045000
C                 9.8269936000       16.9934142000       43.2288584000
C                 9.8269936000       16.9934142000       37.4621416000
C                10.6165152000       15.9282588000       43.6242443000
C                10.6165152000       15.9282588000       37.0667557000
C                10.6157968000       15.4952688000       44.9475767000
C                10.6157968000       15.4952688000       35.7434233000
C                 9.8061600000       16.1144445000       45.8701438000
C                 9.8061600000       16.1144445000       34.8208562000
C                 9.0152016000       17.1608370000       45.4828270000
C                 9.0152016000       17.1608370000       35.2081730000
C                 9.0209488000       17.6068167000       44.1729431000
C                 9.0209488000       17.6068167000       36.5180569000
H                 7.6365920000       16.0494960000       42.7124360000
H                 7.6365920000       16.0494960000       37.9785640000
H                11.1926720000       15.4721760000       42.9545090000
H                11.1926720000       15.4721760000       37.7364910000
H                11.2070400000       14.6927940000       45.1869600000
H                11.2070400000       14.6927940000       35.5040400000
H                 9.7917920000       15.7897020000       46.8276770000
H                 9.7917920000       15.7897020000       33.8633230000
H                 8.3980960000       17.6226930000       46.1283550000
H                 8.3980960000       17.6226930000       34.5626450000
H                13.0964320000       17.6659920000       43.8959040000
H                13.0964320000       17.6659920000       36.7950960000
C                10.7760000000       18.0412500000       41.0797881000
C                 7.1840000000       25.2577500000       41.0797881000
C                10.7760000000       18.0412500000       39.6112119000
C                 7.1840000000       25.2577500000       39.6112119000
C                11.8018752000       18.7484670000       41.7629719000
C                13.3421248000       25.9649670000       41.7629719000
C                 8.2098752000       24.5505330000       41.7629719000
C                11.8018752000       18.7484670000       38.9280281000
C                 8.2098752000       24.5505330000       38.9280281000
C                13.3421248000       25.9649670000       38.9280281000
C                12.8780384000       19.3041375000       41.0663396000
C                12.2659616000       26.5206375000       41.0663396000
C                 9.2860384000       23.9948625000       41.0663396000
C                12.8780384000       19.3041375000       39.6246604000
C                 9.2860384000       23.9948625000       39.6246604000
C                12.2659616000       26.5206375000       39.6246604000
C                13.9585120000       19.9694988000       41.7306955000
C                11.1854880000       27.1859988000       41.7306955000
C                10.3665120000       23.3295012000       41.7306955000
C                13.9585120000       19.9694988000       38.9603045000
C                10.3665120000       23.3295012000       38.9603045000
C                11.1854880000       27.1859988000       38.9603045000
C                10.1790096000       27.7763085000       41.0528911000
C                11.3729904000       22.7391915000       41.0528911000
C                11.3729904000       22.7391915000       39.6381089000
C                10.1790096000       27.7763085000       39.6381089000
C                11.7250064000       19.0890858000       43.2288584000
C                13.4189936000       26.3055858000       43.2288584000
C                 8.1330064000       24.2099142000       43.2288584000
C                11.7250064000       19.0890858000       37.4621416000
C                 8.1330064000       24.2099142000       37.4621416000
C                13.4189936000       26.3055858000       37.4621416000
C                10.9354848000       20.1542412000       43.6242443000
C                14.2085152000       27.3707412000       43.6242443000
C                 7.3434848000       23.1447588000       43.6242443000
C                10.9354848000       20.1542412000       37.0667557000
C                 7.3434848000       23.1447588000       37.0667557000
C                14.2085152000       27.3707412000       37.0667557000
C                10.9362032000       20.5872312000       44.9475767000
C                14.2077968000       27.8037312000       44.9475767000
C                 7.3442032000       22.7117688000       44.9475767000
C                10.9362032000       20.5872312000       35.7434233000
C                 7.3442032000       22.7117688000       35.7434233000
C                14.2077968000       27.8037312000       35.7434233000
C                11.7458400000       19.9680555000       45.8701438000
C                13.3981600000       27.1845555000       45.8701438000
C                 8.1538400000       23.3309445000       45.8701438000
C                11.7458400000       19.9680555000       34.8208562000
C                 8.1538400000       23.3309445000       34.8208562000
C                13.3981600000       27.1845555000       34.8208562000
C                12.5367984000       18.9216630000       45.4828270000
C                12.6072016000       26.1381630000       45.4828270000
C                 8.9447984000       24.3773370000       45.4828270000
C                12.5367984000       18.9216630000       35.2081730000
C                 8.9447984000       24.3773370000       35.2081730000
C                12.6072016000       26.1381630000       35.2081730000
C                12.5310512000       18.4756833000       44.1729431000
C                12.6129488000       25.6921833000       44.1729431000
C                 8.9390512000       24.8233167000       44.1729431000
C                12.5310512000       18.4756833000       36.5180569000
C                 8.9390512000       24.8233167000       36.5180569000
C                12.6129488000       25.6921833000       36.5180569000
H                13.9154080000       20.0330040000       42.7124360000
H                11.2285920000       27.2495040000       42.7124360000
H                10.3234080000       23.2659960000       42.7124360000
H                13.9154080000       20.0330040000       37.9785640000
H                10.3234080000       23.2659960000       37.9785640000
H                11.2285920000       27.2495040000       37.9785640000
H                 9.4397760000       28.2453810000       41.5558650000
H                12.1122240000       22.2701190000       41.5558650000
H                12.1122240000       22.2701190000       39.1351350000
H                 9.4397760000       28.2453810000       39.1351350000
H                10.3593280000       20.6103240000       42.9545090000
H                 7.6006720000       27.8268240000       42.9545090000
H                13.9513280000       22.6886760000       42.9545090000
H                10.3593280000       20.6103240000       37.7364910000
H                13.9513280000       22.6886760000       37.7364910000
H                 7.6006720000       27.8268240000       37.7364910000
H                10.3449600000       21.3897060000       45.1869600000
H                 7.6150400000       28.6062060000       45.1869600000
H                13.9369600000       21.9092940000       45.1869600000
H                10.3449600000       21.3897060000       35.5040400000
H                13.9369600000       21.9092940000       35.5040400000
H                 7.6150400000       28.6062060000       35.5040400000
H                11.7602080000       20.2927980000       46.8276770000
H                13.3837920000       27.5092980000       46.8276770000
H                 8.1682080000       23.0062020000       46.8276770000
H                11.7602080000       20.2927980000       33.8633230000
H                 8.1682080000       23.0062020000       33.8633230000
H                13.3837920000       27.5092980000       33.8633230000
H                13.1539040000       18.4598070000       46.1283550000
H                11.9900960000       25.6763070000       46.1283550000
H                 9.5619040000       24.8391930000       46.1283550000
H                13.1539040000       18.4598070000       34.5626450000
H                 9.5619040000       24.8391930000       34.5626450000
H                11.9900960000       25.6763070000       34.5626450000
H                 8.4555680000       18.4165080000       43.8959040000
H                12.0475680000       24.8824920000       43.8959040000
H                 9.5044320000       25.6330080000       43.8959040000
H                 8.4555680000       18.4165080000       36.7950960000
H                 9.5044320000       25.6330080000       36.7950960000
H                12.0475680000       24.8824920000       36.7950960000
C                14.3680000000       25.2577500000       41.0797881000
C                14.3680000000       25.2577500000       39.6112119000
C                15.3938752000       24.5505330000       41.7629719000
C                15.3938752000       24.5505330000       38.9280281000
C                16.4700384000       23.9948625000       41.0663396000
C                16.4700384000       23.9948625000       39.6246604000
C                17.5505120000       23.3295012000       41.7306955000
C                17.5505120000       23.3295012000       38.9603045000
C                14.9649904000       20.5598085000       41.0528911000
C                18.5569904000       22.7391915000       41.0528911000
C                14.9649904000       20.5598085000       39.6381089000
C                18.5569904000       22.7391915000       39.6381089000
C                15.3170064000       24.2099142000       43.2288584000
C                15.3170064000       24.2099142000       37.4621416000
C                14.5274848000       23.1447588000       43.6242443000
C                14.5274848000       23.1447588000       37.0667557000
C                14.5282032000       22.7117688000       44.9475767000
C                14.5282032000       22.7117688000       35.7434233000
C                15.3378400000       23.3309445000       45.8701438000
C                15.3378400000       23.3309445000       34.8208562000
C                16.1287984000       24.3773370000       45.4828270000
C                16.1287984000       24.3773370000       35.2081730000
C                16.1230512000       24.8233167000       44.1729431000
C                16.1230512000       24.8233167000       36.5180569000
H                17.5074080000       23.2659960000       42.7124360000
H                17.5074080000       23.2659960000       37.9785640000
H                15.7042240000       21.0288810000       41.5558650000
H                19.2962240000       22.2701190000       41.5558650000
H                15.7042240000       21.0288810000       39.1351350000
H                19.2962240000       22.2701190000       39.1351350000
H                14.7846720000       27.8268240000       42.9545090000
H                14.7846720000       27.8268240000       37.7364910000
H                14.7990400000       28.6062060000       45.1869600000
H                14.7990400000       28.6062060000       35.5040400000
H                15.3522080000       23.0062020000       46.8276770000
H                15.3522080000       23.0062020000       33.8633230000
H                16.7459040000       24.8391930000       46.1283550000
H                16.7459040000       24.8391930000       34.5626450000
H                16.6884320000       25.6330080000       43.8959040000
H                16.6884320000       25.6330080000       36.7950960000


